ID Bruno, modes_multi
SOL MODES
TIME 100
CEND
TITLE = Modes multi-METHOD (2 subcases, distinct EIGRL counts)
SPC = 1
DISPLACEMENT = ALL
SUBCASE 1
  METHOD = 10
SUBCASE 2
  METHOD = 20
BEGIN BULK
PARAM,POST,-1
EIGRL,10,,,3
EIGRL,20,,,5
GRID,1,,0.0,0.0,0.0
GRID,2,,1.0,0.0,0.0
GRID,3,,2.0,0.0,0.0
GRID,4,,3.0,0.0,0.0
GRID,5,,4.0,0.0,0.0
GRID,6,,5.0,0.0,0.0
CBAR,1,10,1,2,0.0,1.0,0.0
CBAR,2,10,2,3,0.0,1.0,0.0
CBAR,3,10,3,4,0.0,1.0,0.0
CBAR,4,10,4,5,0.0,1.0,0.0
CBAR,5,10,5,6,0.0,1.0,0.0
PBAR,10,100,1.0,0.0833,0.0833,0.1406
MAT1,100,1.0E7,,0.3,2.59E-4
SPC1,1,123456,1
ENDDATA
